# DDEC6 charges by PACMAN v1.1 (https://github.com/mtap-research/PACMAN-charge/)
data_10853_2020_5211_MOESM2_ESM_FSR_pacman
_symmetry_space_group_name_H-M   'P 1'
_cell_length_a   9.63100000
_cell_length_b   10.41200000
_cell_length_c   20.23970000
_cell_angle_alpha   99.96330000
_cell_angle_beta   103.76400000
_cell_angle_gamma   90.00000000
_symmetry_Int_Tables_number   1
_chemical_formula_structural   NdH25C37(N2O3)3
_chemical_formula_sum   'Nd2 H50 C74 N12 O18'
_cell_volume   1939.78588701
_cell_formula_units_Z   2
loop_
 _symmetry_equiv_pos_site_id
 _symmetry_equiv_pos_as_xyz
  1  'x, y, z'
loop_
 _atom_site_type_symbol
 _atom_site_label
 _atom_site_symmetry_multiplicity
 _atom_site_fract_x
 _atom_site_fract_y
 _atom_site_fract_z
 _atom_site_occupancy
 _atom_site_charge
Nd  Nd1  1  0.03038000  0.26100000  0.98944000  1.0 1.7594252169
Nd  Nd2  1  0.95906000  0.76100000  0.98944000  1.0 1.7594252169
H  H1  1  0.93290000  0.52720000  0.61900000  1.0 0.1005513567
H  H2  1  0.92460000  0.70450000  0.70280000  1.0 0.1005513567
H  H3  1  0.95700000  0.67630000  0.81840000  1.0 0.1005513567
H  H4  1  0.04430000  0.30080000  0.76600000  1.0 0.1117844885
H  H5  1  0.05230000  0.49430000  0.35980000  1.0 0.1005513567
H  H6  1  0.04340000  0.31330000  0.27380000  1.0 0.1117844885
H  H7  1  0.99570000  0.33770000  0.15880000  1.0 0.1117844885
H  H8  1  0.96590000  0.72400000  0.21580000  1.0 0.1005513567
H  H9  1  0.68610000  0.02720000  0.61900000  1.0 0.1005513567
H  H10  1  0.77820000  0.20450000  0.70280000  1.0 0.1005513567
H  H11  1  0.86140000  0.17630000  0.81840000  1.0 0.1005513567
H  H12  1  0.72170000  0.80080000  0.76600000  1.0 0.1117844885
H  H13  1  0.30750000  0.99430000  0.35980000  1.0 0.1005513567
H  H14  1  0.23040000  0.81330000  0.27380000  1.0 0.1117844885
H  H15  1  0.16310000  0.83770000  0.15880000  1.0 0.1117844885
H  H16  1  0.24990000  0.22400000  0.21580000  1.0 0.1005513567
H  H17  1  0.46990000  0.01510000  0.56380000  0.28 0.1005513567
H  H18  1  0.46330000  0.22850000  0.66760000  0.28 0.0795303311
H  H19  1  0.25790000  0.35410000  0.69840000  0.28 0.0895723715
H  H20  1  0.71150000  0.34620000  0.59680000  0.28 0.128998515
H  H21  1  0.54620000  0.22130000  0.48940000  0.28 0.0895723715
H  H22  1  0.56210000  0.04930000  0.39040000  0.28 0.0895723715
H  H23  1  0.55550000  0.81090000  0.30620000  0.28 0.0895723715
H  H24  1  0.76120000  0.70230000  0.26600000  0.28 0.0638551652
H  H25  1  0.30710000  0.68060000  0.38020000  0.28 0.1117844885
H  H26  1  0.47990000  0.82780000  0.47620000  0.28 0.0701354295
H  H27  1  0.09390000  0.51510000  0.56380000  0.28 0.1005513567
H  H28  1  0.20430000  0.72850000  0.66760000  0.28 0.0795303311
H  H29  1  0.44050000  0.85410000  0.69840000  0.28 0.0895723715
H  H30  1  0.88530000  0.84620000  0.59680000  0.28 0.128998515
H  H31  1  0.94320000  0.72130000  0.48940000  0.28 0.0895723715
H  H32  1  0.82830000  0.54930000  0.39040000  0.28 0.0895723715
H  H33  1  0.75070000  0.31090000  0.30620000  0.28 0.0895723715
H  H34  1  0.50480000  0.20230000  0.26600000  0.28 0.0638551652
H  H35  1  0.07310000  0.18060000  0.38020000  0.28 0.1117844885
H  H36  1  0.99630000  0.32780000  0.47620000  0.28 0.0701354295
H  H37  1  0.34370000  0.49320000  0.99160000  0.42 0.025804726
H  H38  1  0.62040000  0.60230000  0.09300000  0.42 0.0795303311
H  H39  1  0.57030000  0.64740000  0.16140000  0.42 0.0795303311
H  H40  1  0.48610000  0.68750000  0.09220000  0.42 0.1117844885
H  H41  1  0.36830000  0.34530000  0.12500000  0.42 0.1117844885
H  H42  1  0.40790000  0.46550000  0.18540000  0.42 0.0895723715
H  H43  1  0.52900000  0.38120000  0.16260000  0.42 0.0795303311
H  H44  1  0.64790000  0.99320000  0.99160000  0.42 0.025804726
H  H45  1  0.47260000  0.10230000  0.09300000  0.42 0.0795303311
H  H46  1  0.59110000  0.14740000  0.16140000  0.42 0.0795303311
H  H47  1  0.60610000  0.18750000  0.09220000  0.42 0.1117844885
H  H48  1  0.75670000  0.84530000  0.12500000  0.42 0.1117844885
H  H49  1  0.77750000  0.96550000  0.18540000  0.42 0.0895723715
H  H50  1  0.63360000  0.88120000  0.16260000  0.42 0.0795303311
H  H51  1  0.39310000  0.37930000  0.02000000  0.58 0.1405795559
H  H52  1  0.39180000  0.64210000  0.18140000  0.58 0.0795303311
H  H53  1  0.45950000  0.53220000  0.22140000  0.58 0.0895723715
H  H54  1  0.30240000  0.51300000  0.17560000  0.58 0.0895723715
H  H55  1  0.65860000  0.48000000  0.16380000  0.58 0.0249270513
H  H56  1  0.62620000  0.59490000  0.12220000  0.58 0.1005513567
H  H57  1  0.62350000  0.45110000  0.08280000  0.58 0.0701354295
H  H58  1  0.62690000  0.87930000  0.02000000  0.58 0.1405795559
H  H59  1  0.78960000  0.14210000  0.18140000  0.58 0.0795303311
H  H60  1  0.76190000  0.03220000  0.22140000  0.58 0.0895723715
H  H61  1  0.87320000  0.01300000  0.17560000  0.58 0.0895723715
H  H62  1  0.50520000  0.98000000  0.16380000  0.58 0.0249270513
H  H63  1  0.49600000  0.09490000  0.12220000  0.58 0.1005513567
H  H64  1  0.45930000  0.95110000  0.08280000  0.58 0.0701354295
H  H65  1  0.44280000  0.99990000  0.56220000  0.72 0.1151322067
H  H66  1  0.45130000  0.16990000  0.67420000  0.72 0.0895723715
H  H67  1  0.27360000  0.32280000  0.71380000  0.72 0.1005513567
H  H68  1  0.69220000  0.36230000  0.60720000  0.72 0.1117844885
H  H69  1  0.51720000  0.22860000  0.50640000  0.72 0.0701354295
H  H70  1  0.54280000  0.03500000  0.41700000  0.72 0.0795303311
H  H71  1  0.52680000  0.84300000  0.31980000  0.72 0.0701354295
H  H72  1  0.69710000  0.68390000  0.27820000  0.72 0.0895723715
H  H73  1  0.27390000  0.65410000  0.36620000  0.72 0.0895723715
H  H74  1  0.45380000  0.78410000  0.46640000  0.72 0.1005513567
H  H75  1  0.11940000  0.49990000  0.56220000  0.72 0.1151322067
H  H76  1  0.22290000  0.66990000  0.67420000  0.72 0.0895723715
H  H77  1  0.44020000  0.82280000  0.71380000  0.72 0.1005513567
H  H78  1  0.91500000  0.86230000  0.60720000  0.72 0.1117844885
H  H79  1  0.98920000  0.72860000  0.50640000  0.72 0.0701354295
H  H80  1  0.87420000  0.53500000  0.41700000  0.72 0.0795303311
H  H81  1  0.79300000  0.34300000  0.31980000  0.72 0.0701354295
H  H82  1  0.58110000  0.18390000  0.27820000  0.72 0.0895723715
H  H83  1  0.09230000  0.15410000  0.36620000  0.72 0.0895723715
H  H84  1  0.01260000  0.28410000  0.46640000  0.72 0.1005513567
C  C1  1  0.98720000  0.39060000  0.68000000  1.0 0.0795303311
C  C2  1  0.95140000  0.51610000  0.66480000  1.0 -0.2360960752
C  C3  1  0.94340000  0.62270000  0.71480000  1.0 -0.1615164899
C  C4  1  0.96400000  0.60560000  0.78460000  1.0 -0.0895623029
C  C5  1  0.99420000  0.48440000  0.80240000  1.0 0.0066550798
C  C6  1  0.01380000  0.37920000  0.75260000  1.0 -0.1706041729
C  C7  1  0.00390000  0.46950000  0.87660000  1.0 0.6044360638
C  C8  1  0.01000000  0.62710000  0.29640000  1.0 0.0701354295
C  C9  1  0.03310000  0.50410000  0.31360000  1.0 -0.1977266096
C  C10  1  0.02780000  0.39560000  0.26220000  1.0 -0.2068041679
C  C11  1  0.99920000  0.41020000  0.19320000  1.0 -0.1803349962
C  C12  1  0.97610000  0.53330000  0.17600000  1.0 -0.0419539447
C  C13  1  0.98140000  0.64170000  0.22740000  1.0 -0.2068041679
C  C14  1  0.95570000  0.55500000  0.10160000  1.0 0.4859991908
C  C15  1  0.69280000  0.89060000  0.68000000  1.0 0.0795303311
C  C16  1  0.71340000  0.01610000  0.66480000  1.0 -0.2360960752
C  C17  1  0.77140000  0.12270000  0.71480000  1.0 -0.1615164899
C  C18  1  0.82060000  0.10560000  0.78460000  1.0 -0.0895623029
C  C19  1  0.80820000  0.98440000  0.80240000  1.0 0.0066550798
C  C20  1  0.73880000  0.87920000  0.75260000  1.0 -0.1706041729
C  C21  1  0.87270000  0.96950000  0.87660000  1.0 0.6044360638
C  C22  1  0.28640000  0.12710000  0.29640000  1.0 0.0701354295
C  C23  1  0.28050000  0.00410000  0.31360000  1.0 -0.1977266096
C  C24  1  0.23440000  0.89560000  0.26220000  1.0 -0.2068041679
C  C25  1  0.19400000  0.91020000  0.19320000  1.0 -0.1803349962
C  C26  1  0.19990000  0.03330000  0.17600000  1.0 -0.0419539447
C  C27  1  0.24600000  0.14170000  0.22740000  1.0 -0.2068041679
C  C28  1  0.14590000  0.05500000  0.10160000  1.0 0.4859991908
C  C29  1  0.37080000  0.01700000  0.55160000  0.28 -0.2288253913
C  C30  1  0.30980000  0.10500000  0.59160000  0.28 0.1405795559
C  C31  1  0.36730000  0.21000000  0.64660000  0.28 -0.0504915914
C  C32  1  0.25100000  0.28100000  0.66400000  0.28 -0.129884855
C  C33  1  0.12180000  0.22000000  0.61960000  0.28 0.1881274074
C  C34  1  0.99650000  0.27800000  0.62500000  0.28 -0.0895623029
C  C35  1  0.87190000  0.22100000  0.57380000  0.28 0.1881274074
C  C36  1  0.73540000  0.27600000  0.56680000  0.28 -0.1228868127
C  C37  1  0.64210000  0.20600000  0.50620000  0.28 -0.0593474679
C  C38  1  0.72090000  0.10700000  0.47580000  0.28 0.1604267001
C  C39  1  0.64970000  0.02600000  0.41540000  0.28 -0.1803349962
C  C40  1  0.70830000  0.91000000  0.39260000  0.28 0.1746801972
C  C41  1  0.65150000  0.82400000  0.32900000  0.28 -0.1016845875
C  C42  1  0.76810000  0.76300000  0.30620000  0.28 -0.0895623029
C  C43  1  0.89590000  0.81100000  0.35580000  0.28 0.1405795559
C  C44  1  0.02370000  0.74140000  0.35340000  0.28 -0.0504915914
C  C45  1  0.14390000  0.79700000  0.40780000  0.28 0.1604267001
C  C46  1  0.28380000  0.75200000  0.40960000  0.28 -0.0419539447
C  C47  1  0.38090000  0.83500000  0.46380000  0.28 -0.0895623029
C  C48  1  0.30180000  0.93100000  0.49560000  0.28 0.128998515
C  C49  1  0.18080000  0.51700000  0.55160000  0.28 -0.2288253913
C  C50  1  0.28180000  0.60500000  0.59160000  0.28 0.1405795559
C  C51  1  0.27930000  0.71000000  0.64660000  0.28 -0.0504915914
C  C52  1  0.41300000  0.78100000  0.66400000  0.28 -0.129884855
C  C53  1  0.49780000  0.72000000  0.61960000  0.28 0.1881274074
C  C54  1  0.62850000  0.77800000  0.62500000  0.28 -0.0895623029
C  C55  1  0.70190000  0.72100000  0.57380000  0.28 0.1881274074
C  C56  1  0.83140000  0.77600000  0.56680000  0.28 -0.1228868127
C  C57  1  0.86410000  0.70600000  0.50620000  0.28 -0.0593474679
C  C58  1  0.75490000  0.60700000  0.47580000  0.28 0.1604267001
C  C59  1  0.76570000  0.52600000  0.41540000  0.28 -0.1803349962
C  C60  1  0.68430000  0.41000000  0.39260000  0.28 0.1746801972
C  C61  1  0.67750000  0.32400000  0.32900000  0.28 -0.1016845875
C  C62  1  0.53810000  0.26300000  0.30620000  0.28 -0.0895623029
C  C63  1  0.45990000  0.31100000  0.35580000  0.28 0.1405795559
C  C64  1  0.32970000  0.24140000  0.35340000  0.28 -0.0504915914
C  C65  1  0.26390000  0.29700000  0.40780000  0.28 0.1604267001
C  C66  1  0.12580000  0.25200000  0.40960000  0.28 -0.0419539447
C  C67  1  0.08290000  0.33500000  0.46380000  0.28 -0.0895623029
C  C68  1  0.19380000  0.43100000  0.49560000  0.28 0.128998515
C  C69  1  0.35190000  0.45190000  0.02960000  0.42 0.1117844885
C  C70  1  0.53910000  0.62000000  0.11220000  0.42 -0.2068041679
C  C71  1  0.43740000  0.41600000  0.14680000  0.42 -0.0593474679
C  C72  1  0.67770000  0.95190000  0.02960000  0.42 0.1117844885
C  C73  1  0.57310000  0.12000000  0.11220000  0.42 -0.2068041679
C  C74  1  0.70940000  0.91600000  0.14680000  0.42 -0.0593474679
C  C75  1  0.35770000  0.41620000  0.05760000  0.58 0.2522071242
C  C76  1  0.39630000  0.54900000  0.17980000  0.58 -0.2288253913
C  C77  1  0.60280000  0.50530000  0.12240000  0.58 -0.1886993259
C  C78  1  0.69990000  0.91620000  0.05760000  0.58 0.2522071242
C  C79  1  0.78350000  0.04900000  0.17980000  0.58 -0.2288253913
C  C80  1  0.51960000  0.00530000  0.12240000  0.58 -0.1886993259
C  C81  1  0.34300000  0.99400000  0.55000000  0.72 -0.2068041679
C  C82  1  0.28030000  0.08300000  0.59260000  0.72 0.2156003356
C  C83  1  0.35430000  0.17000000  0.65300000  0.72 -0.0791899808
C  C84  1  0.25370000  0.25620000  0.67540000  0.72 -0.1228868127
C  C85  1  0.11830000  0.22300000  0.62880000  0.72 0.1405795559
C  C86  1  0.99220000  0.27600000  0.62840000  0.72 -0.0895623029
C  C87  1  0.85130000  0.24200000  0.57860000  0.72 0.1527570538
C  C88  1  0.71330000  0.29200000  0.57660000  0.72 -0.129884855
C  C89  1  0.61490000  0.21700000  0.51960000  0.72 -0.0702015743
C  C90  1  0.69130000  0.11900000  0.48660000  0.72 0.128998515
C  C91  1  0.64210000  0.03600000  0.43220000  0.72 -0.1706041729
C  C92  1  0.70700000  0.94300000  0.39000000  0.72 0.1881274074
C  C93  1  0.62570000  0.84700000  0.33640000  0.72 -0.1706041729
C  C94  1  0.72150000  0.75700000  0.31300000  0.72 -0.0419539447
C  C95  1  0.86260000  0.79800000  0.35180000  0.72 0.1527570538
C  C96  1  0.00430000  0.74200000  0.35460000  0.72 -0.0791899808
C  C97  1  0.11790000  0.77500000  0.39840000  0.72 0.128998515
C  C98  1  0.25440000  0.72300000  0.39800000  0.72 -0.1016845875
C  C99  1  0.35600000  0.79700000  0.45440000  0.72 -0.0336038707
C  C100  1  0.28230000  0.89300000  0.48980000  0.72 0.1604267001
C  C101  1  0.20700000  0.49400000  0.55000000  0.72 -0.2068041679
C  C102  1  0.31230000  0.58300000  0.59260000  0.72 0.2156003356
C  C103  1  0.29870000  0.67000000  0.65300000  0.72 -0.0791899808
C  C104  1  0.42170000  0.75620000  0.67540000  0.72 -0.1228868127
C  C105  1  0.51050000  0.72300000  0.62880000  0.72 0.1405795559
C  C106  1  0.63620000  0.77600000  0.62840000  0.72 -0.0895623029
C  C107  1  0.72730000  0.74200000  0.57860000  0.72 0.1527570538
C  C108  1  0.86330000  0.79200000  0.57660000  0.72 -0.129884855
C  C109  1  0.90470000  0.71700000  0.51960000  0.72 -0.0702015743
C  C110  1  0.79530000  0.61900000  0.48660000  0.72 0.128998515
C  C111  1  0.79010000  0.53600000  0.43220000  0.72 -0.1706041729
C  C112  1  0.68300000  0.44300000  0.39000000  0.72 0.1881274074
C  C113  1  0.71070000  0.34700000  0.33640000  0.72 -0.1706041729
C  C114  1  0.59150000  0.25700000  0.31300000  0.72 -0.0419539447
C  C115  1  0.48920000  0.29800000  0.35180000  0.72 0.1527570538
C  C116  1  0.35030000  0.24200000  0.35460000  0.72 -0.0791899808
C  C117  1  0.28050000  0.27500000  0.39840000  0.72 0.128998515
C  C118  1  0.14360000  0.22300000  0.39800000  0.72 -0.1016845875
C  C119  1  0.09840000  0.29700000  0.45440000  0.72 -0.0336038707
C  C120  1  0.20750000  0.39300000  0.48980000  0.72 0.1604267001
N  N1  1  0.15850000  0.11200000  0.57500000  0.28 -0.2974755376
N  N2  1  0.86280000  0.11600000  0.51760000  0.28 -0.313860333
N  N3  1  0.85960000  0.90100000  0.40920000  0.28 -0.401994294
N  N4  1  0.15450000  0.90800000  0.46100000  0.28 -0.2614638269
N  N5  1  0.41650000  0.61200000  0.57500000  0.28 -0.2974755376
N  N6  1  0.65480000  0.61600000  0.51760000  0.28 -0.313860333
N  N7  1  0.54960000  0.40100000  0.40920000  0.28 -0.401994294
N  N8  1  0.30650000  0.40800000  0.46100000  0.28 -0.2614638269
N  N9  1  0.73210000  0.23300000  0.02020000  0.41 0.298128666
N  N10  1  0.28810000  0.73300000  0.02020000  0.41 0.298128666
N  N11  1  0.44640000  0.50050000  0.09700000  0.42 0.128998515
N  N12  1  0.65060000  0.00050000  0.09700000  0.42 0.128998515
N  N13  1  0.45000000  0.49020000  0.12000000  0.58 0.1881274074
N  N14  1  0.67000000  0.99020000  0.12000000  0.58 0.1881274074
N  N15  1  0.71500000  0.24200000  0.97040000  0.59 0.298128666
N  N16  1  0.25540000  0.74200000  0.97040000  0.59 0.298128666
N  N17  1  0.13480000  0.11600000  0.57760000  0.72 -0.3232424617
N  N18  1  0.83760000  0.13500000  0.52300000  0.72 -0.2288253913
N  N19  1  0.85370000  0.91300000  0.39940000  0.72 -0.3524246126
N  N20  1  0.13500000  0.87900000  0.45500000  0.72 -0.2480009109
N  N21  1  0.44280000  0.61600000  0.57760000  0.72 -0.3232424617
N  N22  1  0.68540000  0.63500000  0.52300000  0.72 -0.2288253913
N  N23  1  0.54570000  0.41300000  0.39940000  0.72 -0.3524246126
N  N24  1  0.32000000  0.37900000  0.45500000  0.72 -0.2480009109
O  O1  1  0.02180000  0.36160000  0.89080000  1.0 -0.6198610723
O  O2  1  0.97500000  0.56400000  0.91600000  1.0 -0.662417835
O  O3  1  0.93810000  0.66870000  0.08900000  1.0 -0.6274063647
O  O4  1  0.94450000  0.44870000  0.05340000  1.0 -0.7398072541
O  O5  1  0.22720000  0.12700000  0.94840000  1.0 -0.3569148839
O  O6  1  0.86900000  0.86160000  0.89080000  1.0 -0.6198610723
O  O7  1  0.94100000  0.06400000  0.91600000  1.0 -0.662417835
O  O8  1  0.15090000  0.16870000  0.08900000  1.0 -0.6274063647
O  O9  1  0.10890000  0.94870000  0.05340000  1.0 -0.7398072541
O  O10  1  0.72120000  0.62700000  0.94840000  1.0 -0.3569148839
O  O11  1  0.74550000  0.27300000  0.97100000  0.41 0.2572058976
O  O12  1  0.83750000  0.20300000  0.05500000  0.41 -0.1803349962
O  O13  1  0.62660000  0.21500000  0.03720000  0.41 -0.1615164899
O  O14  1  0.22550000  0.77300000  0.97100000  0.41 0.2572058976
O  O15  1  0.21750000  0.70300000  0.05500000  0.41 -0.1803349962
O  O16  1  0.41060000  0.71500000  0.03720000  0.41 -0.1615164899
O  O17  1  0.28540000  0.35330000  0.02780000  0.42 -0.11475209
O  O18  1  0.74240000  0.85330000  0.02780000  0.42 -0.11475209
O  O19  1  0.23190000  0.40500000  0.05700000  0.58 -0.1977266096
O  O20  1  0.82510000  0.90500000  0.05700000  0.58 -0.1977266096
O  O21  1  0.76780000  0.30100000  0.93760000  0.59 -0.147983408
O  O22  1  0.59290000  0.24000000  0.96720000  0.59 -0.129884855
O  O23  1  0.79800000  0.19700000  0.01200000  0.59 0.1405795559
O  O24  1  0.16980000  0.80100000  0.93760000  0.59 -0.147983408
O  O25  1  0.37430000  0.74000000  0.96720000  0.59 -0.129884855
O  O26  1  0.21400000  0.69700000  0.01200000  0.59 0.1405795559
