# DDEC6 charges by PACMAN v1.1 (https://github.com/mtap-research/PACMAN-charge/)
data_0000[Co][nan]2[ASR]1
_chemical_formula_sum              "Co2 H48 C80 N16"
_cell_length_a       12.8012
_cell_length_b       12.8012
_cell_length_c       14.7635
_cell_angle_alpha    77.8648
_cell_angle_beta     77.8648
_cell_angle_gamma    63.1728

_symmetry_space_group_name_H-M    "P 1"
_symmetry_Int_Tables_number       1

loop_
  _symmetry_equiv_pos_as_xyz
  'x, y, z'

loop_
  _atom_site_type_symbol
  _atom_site_label
  _atom_site_symmetry_multiplicity
  _atom_site_fract_x
  _atom_site_fract_y
  _atom_site_fract_z
  _atom_site_occupancy
  _atom_site_charge
Co  Co1       1.0  0.50000  0.00000  0.00000  1.0000 0.5104368903
Co  Co2       1.0  1.00000  0.50000  0.50000  1.0000 0.5104368903
H   H1        1.0  0.87630  0.87530  0.76380  1.0000 0.1217339635
H   H2        1.0  0.87190  0.04270  0.82570  1.0000 0.1217339635
H   H3        1.0  0.87650  0.10210  0.01860  1.0000 0.138076862
H   H4        1.0  0.65400  0.34640  0.84290  1.0000 0.1313411993
H   H5        1.0  0.99200  0.20700  0.97670  1.0000 0.1015663901
H   H6        1.0  0.78040  0.43680  0.80340  1.0000 0.0936454028
H   H7        1.0  0.69540  0.87180  0.65600  1.0000 0.1313411993
H   H8        1.0  0.42250  0.66470  0.93670  1.0000 0.1217339635
H   H9        1.0  0.60540  0.64760  0.83070  1.0000 0.1217339635
H   H10       1.0  0.85640  0.59160  0.84270  1.0000 0.138076862
H   H11       1.0  0.96120  0.48580  0.71910  1.0000 0.1015663901
H   H12       1.0  0.80360  0.75700  0.53820  1.0000 0.1015663901
H   H13       1.0  0.12470  0.12370  0.73620  1.0000 0.1217339635
H   H14       1.0  0.95730  0.12810  0.67430  1.0000 0.1217339635
H   H15       1.0  0.89790  0.12350  0.48140  1.0000 0.138076862
H   H16       1.0  0.65360  0.34600  0.65710  1.0000 0.1313411993
H   H17       1.0  0.79300  0.00800  0.52330  1.0000 0.1015663901
H   H18       1.0  0.56320  0.21960  0.69660  1.0000 0.0936454028
H   H19       1.0  0.12820  0.30460  0.84400  1.0000 0.1313411993
H   H20       1.0  0.33530  0.57750  0.56330  1.0000 0.1217339635
H   H21       1.0  0.35240  0.39460  0.66930  1.0000 0.1217339635
H   H22       1.0  0.40840  0.14360  0.65730  1.0000 0.138076862
H   H23       1.0  0.51420  0.03880  0.78090  1.0000 0.1015663901
H   H24       1.0  0.24300  0.19640  0.96180  1.0000 0.1015663901
H   H25       1.0  0.12370  0.12470  0.23620  1.0000 0.1217339635
H   H26       1.0  0.12810  0.95730  0.17430  1.0000 0.1217339635
H   H27       1.0  0.12350  0.89790  0.98140  1.0000 0.138076862
H   H28       1.0  0.34600  0.65360  0.15710  1.0000 0.1313411993
H   H29       1.0  0.00800  0.79300  0.02330  1.0000 0.1015663901
H   H30       1.0  0.21960  0.56320  0.19660  1.0000 0.0936454028
H   H31       1.0  0.30460  0.12820  0.34400  1.0000 0.1313411993
H   H32       1.0  0.57750  0.33530  0.06330  1.0000 0.1217339635
H   H33       1.0  0.39460  0.35240  0.16930  1.0000 0.1217339635
H   H34       1.0  0.14360  0.40840  0.15730  1.0000 0.138076862
H   H35       1.0  0.03880  0.51420  0.28090  1.0000 0.1015663901
H   H36       1.0  0.19640  0.24300  0.46180  1.0000 0.1015663901
H   H37       1.0  0.87530  0.87630  0.26380  1.0000 0.1217339635
H   H38       1.0  0.04270  0.87190  0.32570  1.0000 0.1217339635
H   H39       1.0  0.10210  0.87650  0.51860  1.0000 0.138076862
H   H40       1.0  0.34640  0.65400  0.34290  1.0000 0.1313411993
H   H41       1.0  0.20700  0.99200  0.47670  1.0000 0.1015663901
H   H42       1.0  0.43680  0.78040  0.30340  1.0000 0.0936454028
H   H43       1.0  0.87180  0.69540  0.15600  1.0000 0.1313411993
H   H44       1.0  0.66470  0.42250  0.43670  1.0000 0.1217339635
H   H45       1.0  0.64760  0.60540  0.33070  1.0000 0.1217339635
H   H46       1.0  0.59160  0.85640  0.34270  1.0000 0.138076862
H   H47       1.0  0.48580  0.96120  0.21910  1.0000 0.1015663901
H   H48       1.0  0.75700  0.80360  0.03820  1.0000 0.1015663901
C   C1        1.0  0.71428  0.90290  0.85545  1.0000 0.1525067851
C   C2        1.0  0.68726  0.81546  0.84061  1.0000 -0.0892956931
C   C3        1.0  0.81758  0.92004  0.80917  1.0000 -0.1929168376
C   C4        1.0  0.70951  0.05191  0.90842  1.0000 0.1615090162
C   C5        1.0  0.81496  0.01120  0.84250  1.0000 -0.2020442438
C   C6        1.0  0.67402  0.14862  0.95524  1.0000 -0.0806485511
C   C7        1.0  0.75104  0.21284  0.93490  1.0000 0.1217339635
C   C8        1.0  0.85344  0.17164  0.97460  1.0000 -0.2059882097
C   C9        1.0  0.72419  0.31419  0.87120  1.0000 -0.2020442438
C   C10       1.0  0.92238  0.23518  0.94830  1.0000 0.072962211
C   C11       1.0  0.79991  0.36851  0.84890  1.0000 0.072962211
C   C12       1.0  0.76124  0.74306  0.76358  1.0000 0.1313411993
C   C13       1.0  0.74858  0.79172  0.67108  1.0000 -0.2020442438
C   C14       1.0  0.59136  0.79388  0.88948  1.0000 0.1704216354
C   C15       1.0  0.46282  0.71302  0.93085  1.0000 -0.1929168376
C   C16       1.0  0.42892  0.81052  0.98188  1.0000 0.1763826772
C   C17       1.0  0.56240  0.70340  0.87355  1.0000 -0.1929168376
C   C18       1.0  0.84294  0.62780  0.78052  1.0000 -0.2020442438
C   C19       1.0  0.90514  0.56522  0.70601  1.0000 0.072962211
C   C20       1.0  0.81402  0.72250  0.60115  1.0000 0.072962211
C   C21       1.0  0.09710  0.28572  0.64455  1.0000 0.1525067851
C   C22       1.0  0.18454  0.31274  0.65939  1.0000 -0.0892956931
C   C23       1.0  0.07996  0.18242  0.69083  1.0000 -0.1929168376
C   C24       1.0  0.94809  0.29049  0.59158  1.0000 0.1615090162
C   C25       1.0  0.98880  0.18504  0.65750  1.0000 -0.2020442438
C   C26       1.0  0.85138  0.32598  0.54476  1.0000 -0.0806485511
C   C27       1.0  0.78716  0.24896  0.56510  1.0000 0.1217339635
C   C28       1.0  0.82836  0.14656  0.52540  1.0000 -0.2059882097
C   C29       1.0  0.68581  0.27581  0.62880  1.0000 -0.2020442438
C   C30       1.0  0.76482  0.07762  0.55170  1.0000 0.072962211
C   C31       1.0  0.63149  0.20009  0.65110  1.0000 0.072962211
C   C32       1.0  0.25694  0.23876  0.73642  1.0000 0.1313411993
C   C33       1.0  0.20828  0.25142  0.82892  1.0000 -0.2020442438
C   C34       1.0  0.20612  0.40864  0.61052  1.0000 0.1704216354
C   C35       1.0  0.28698  0.53718  0.56915  1.0000 -0.1929168376
C   C36       1.0  0.18948  0.57108  0.51812  1.0000 0.1763826772
C   C37       1.0  0.29660  0.43760  0.62645  1.0000 -0.1929168376
C   C38       1.0  0.37220  0.15706  0.71948  1.0000 -0.2020442438
C   C39       1.0  0.43478  0.09486  0.79399  1.0000 0.072962211
C   C40       1.0  0.27750  0.18598  0.89885  1.0000 0.072962211
C   C41       1.0  0.28572  0.09710  0.14455  1.0000 0.1525067851
C   C42       1.0  0.31274  0.18454  0.15939  1.0000 -0.0892956931
C   C43       1.0  0.18242  0.07996  0.19083  1.0000 -0.1929168376
C   C44       1.0  0.29049  0.94809  0.09158  1.0000 0.1615090162
C   C45       1.0  0.18504  0.98880  0.15750  1.0000 -0.2059882097
C   C46       1.0  0.32598  0.85138  0.04476  1.0000 -0.0806485511
C   C47       1.0  0.24896  0.78716  0.06510  1.0000 0.1217339635
C   C48       1.0  0.14656  0.82836  0.02540  1.0000 -0.2059882097
C   C49       1.0  0.27581  0.68581  0.12880  1.0000 -0.2020442438
C   C50       1.0  0.07762  0.76482  0.05170  1.0000 0.072962211
C   C51       1.0  0.20009  0.63149  0.15110  1.0000 0.072962211
C   C52       1.0  0.23876  0.25694  0.23642  1.0000 0.1313411993
C   C53       1.0  0.25142  0.20828  0.32892  1.0000 -0.2020442438
C   C54       1.0  0.40864  0.20612  0.11052  1.0000 0.1704216354
C   C55       1.0  0.53718  0.28698  0.06915  1.0000 -0.1929168376
C   C56       1.0  0.57108  0.18948  0.01812  1.0000 0.1763826772
C   C57       1.0  0.43760  0.29660  0.12645  1.0000 -0.1929168376
C   C58       1.0  0.15706  0.37220  0.21948  1.0000 -0.2020442438
C   C59       1.0  0.09486  0.43478  0.29399  1.0000 0.072962211
C   C60       1.0  0.18598  0.27750  0.39885  1.0000 0.072962211
C   C61       1.0  0.90290  0.71428  0.35545  1.0000 0.1525067851
C   C62       1.0  0.81546  0.68726  0.34061  1.0000 -0.0892956931
C   C63       1.0  0.92004  0.81758  0.30917  1.0000 -0.1929168376
C   C64       1.0  0.05191  0.70951  0.40842  1.0000 0.1615090162
C   C65       1.0  0.01120  0.81496  0.34250  1.0000 -0.2020442438
C   C66       1.0  0.14862  0.67402  0.45524  1.0000 -0.0806485511
C   C67       1.0  0.21284  0.75104  0.43490  1.0000 0.1217339635
C   C68       1.0  0.17164  0.85344  0.47460  1.0000 -0.2059882097
C   C69       1.0  0.31419  0.72419  0.37120  1.0000 -0.2020442438
C   C70       1.0  0.23518  0.92238  0.44830  1.0000 0.072962211
C   C71       1.0  0.36851  0.79991  0.34890  1.0000 0.072962211
C   C72       1.0  0.74306  0.76124  0.26358  1.0000 0.1313411993
C   C73       1.0  0.79172  0.74858  0.17108  1.0000 -0.2020442438
C   C74       1.0  0.79388  0.59136  0.38948  1.0000 0.1704216354
C   C75       1.0  0.71302  0.46282  0.43085  1.0000 -0.1929168376
C   C76       1.0  0.81052  0.42892  0.48188  1.0000 0.1763826772
C   C77       1.0  0.70340  0.56240  0.37355  1.0000 -0.1929168376
C   C78       1.0  0.62780  0.84294  0.28052  1.0000 -0.2020442438
C   C79       1.0  0.56522  0.90514  0.20601  1.0000 0.072962211
C   C80       1.0  0.72250  0.81402  0.10115  1.0000 0.072962211
N   N1        1.0  0.64876  0.98506  0.91624  1.0000 -0.3284097783
N   N2        1.0  0.50914  0.85828  0.95688  1.0000 -0.3284097783
N   N3        1.0  0.89727  0.33187  0.88650  1.0000 -0.2623693816
N   N4        1.0  0.89127  0.60957  0.61714  1.0000 -0.2020442438
N   N5        1.0  0.01494  0.35124  0.58376  1.0000 -0.3284097783
N   N6        1.0  0.14172  0.49086  0.54312  1.0000 -0.3284097783
N   N7        1.0  0.66813  0.10273  0.61350  1.0000 -0.2623693816
N   N8        1.0  0.39043  0.10873  0.88286  1.0000 -0.2020442438
N   N9        1.0  0.35124  0.01494  0.08376  1.0000 -0.3284097783
N   N10       1.0  0.49086  0.14172  0.04312  1.0000 -0.3284097783
N   N11       1.0  0.10273  0.66813  0.11350  1.0000 -0.2623693816
N   N12       1.0  0.10873  0.39043  0.38286  1.0000 -0.2020442438
N   N13       1.0  0.98506  0.64876  0.41624  1.0000 -0.3284097783
N   N14       1.0  0.85828  0.50914  0.45688  1.0000 -0.3284097783
N   N15       1.0  0.33187  0.89727  0.38650  1.0000 -0.2623693816
N   N16       1.0  0.60957  0.89127  0.11714  1.0000 -0.2020442438
