# DDEC6 charges by PACMAN v1.1 (https://github.com/mtap-research/PACMAN-charge/)
data_0000[Co][nan]3[ASR]4
_chemical_formula_sum              "Co3 H78 C126 N18"
_cell_length_a       9.3592
_cell_length_b       19.1814
_cell_length_c       19.1814
_cell_angle_alpha    117.408
_cell_angle_beta     99.3604
_cell_angle_gamma    99.3604

_symmetry_space_group_name_H-M    "P 1"
_symmetry_Int_Tables_number       1

loop_
  _symmetry_equiv_pos_as_xyz
  'x, y, z'

loop_
  _atom_site_type_symbol
  _atom_site_label
  _atom_site_symmetry_multiplicity
  _atom_site_fract_x
  _atom_site_fract_y
  _atom_site_fract_z
  _atom_site_occupancy
  _atom_site_charge
Co  Co1       1.0  0.00000  0.00000  0.50000  1.0000 0.4892365757
Co  Co2       1.0  0.50000  0.50000  0.50000  1.0000 0.4892365757
Co  Co3       1.0  0.00000  0.50000  0.00000  1.0000 0.4892365757
H   H1        1.0  0.18010  0.02650  0.23860  1.0000 0.1207917526
H   H2        1.0  0.58310  0.14520  0.50810  1.0000 0.1207917526
H   H3        1.0  0.75180  0.22470  0.64850  1.0000 0.1282645983
H   H4        1.0  0.83920  0.19020  0.78680  1.0000 0.141712458
H   H5        1.0  0.85920  0.30940  0.90520  1.0000 0.1017446503
H   H6        1.0  0.18360  0.43180  0.86560  1.0000 0.1017446503
H   H7        1.0  0.17180  0.31650  0.74540  1.0000 0.141712458
H   H8        1.0  0.24890  0.20410  0.80230  1.0000 0.1207917526
H   H9        1.0  0.41830  0.11410  0.76390  1.0000 0.1207917526
H   H10       1.0  0.62720  0.05290  0.28510  1.0000 0.1207917526
H   H11       1.0  0.40730  0.05830  0.21370  1.0000 0.1207917526
H   H12       1.0  0.17030  0.98900  0.33550  1.0000 0.1127695986
H   H13       1.0  0.38670  0.98460  0.41130  1.0000 0.1207917526
H   H14       1.0  0.94150  0.76140  0.78790  1.0000 0.1207917526
H   H15       1.0  0.07500  0.49190  0.63710  1.0000 0.1207917526
H   H16       1.0  0.10330  0.35150  0.57620  1.0000 0.1282645983
H   H17       1.0  0.05240  0.21320  0.40340  1.0000 0.141712458
H   H18       1.0  0.95400  0.09480  0.40420  1.0000 0.1017446503
H   H19       1.0  0.31800  0.13440  0.56620  1.0000 0.1017446503
H   H20       1.0  0.42640  0.25460  0.57110  1.0000 0.141712458
H   H21       1.0  0.44660  0.19770  0.40180  1.0000 0.1207917526
H   H22       1.0  0.65440  0.23610  0.35020  1.0000 0.1207917526
H   H23       1.0  0.34210  0.71490  0.76780  1.0000 0.1207917526
H   H24       1.0  0.19360  0.78630  0.84460  1.0000 0.1207917526
H   H25       1.0  0.83480  0.66450  0.65350  1.0000 0.1127695986
H   H26       1.0  0.97540  0.58870  0.57330  1.0000 0.1207917526
H   H27       1.0  0.15360  0.21210  0.97350  1.0000 0.1207917526
H   H28       1.0  0.43790  0.36290  0.85480  1.0000 0.1207917526
H   H29       1.0  0.52710  0.42380  0.77530  1.0000 0.1282645983
H   H30       1.0  0.64900  0.59660  0.80980  1.0000 0.141712458
H   H31       1.0  0.54980  0.59580  0.69060  1.0000 0.1017446503
H   H32       1.0  0.75180  0.43380  0.56820  1.0000 0.1017446503
H   H33       1.0  0.85530  0.42890  0.68350  1.0000 0.141712458
H   H34       1.0  0.04480  0.59820  0.79590  1.0000 0.1207917526
H   H35       1.0  0.30420  0.64980  0.88590  1.0000 0.1207917526
H   H36       1.0  0.57430  0.23220  0.94710  1.0000 0.1207917526
H   H37       1.0  0.34900  0.15540  0.94170  1.0000 0.1207917526
H   H38       1.0  0.18130  0.34650  0.01100  1.0000 0.1127695986
H   H39       1.0  0.40210  0.42670  0.01540  1.0000 0.1207917526
H   H40       1.0  0.81990  0.97350  0.76140  1.0000 0.1207917526
H   H41       1.0  0.41690  0.85480  0.49190  1.0000 0.1207917526
H   H42       1.0  0.24820  0.77530  0.35150  1.0000 0.1282645983
H   H43       1.0  0.16080  0.80980  0.21320  1.0000 0.141712458
H   H44       1.0  0.14080  0.69060  0.09480  1.0000 0.1017446503
H   H45       1.0  0.81640  0.56820  0.13440  1.0000 0.1017446503
H   H46       1.0  0.82820  0.68350  0.25460  1.0000 0.141712458
H   H47       1.0  0.75110  0.79590  0.19770  1.0000 0.1207917526
H   H48       1.0  0.58170  0.88590  0.23610  1.0000 0.1207917526
H   H49       1.0  0.37280  0.94710  0.71490  1.0000 0.1207917526
H   H50       1.0  0.59270  0.94170  0.78630  1.0000 0.1207917526
H   H51       1.0  0.82970  0.01100  0.66450  1.0000 0.1127695986
H   H52       1.0  0.61330  0.01540  0.58870  1.0000 0.1207917526
H   H53       1.0  0.05850  0.23860  0.21210  1.0000 0.1207917526
H   H54       1.0  0.92500  0.50810  0.36290  1.0000 0.1207917526
H   H55       1.0  0.89670  0.64850  0.42380  1.0000 0.1282645983
H   H56       1.0  0.94760  0.78680  0.59660  1.0000 0.141712458
H   H57       1.0  0.04600  0.90520  0.59580  1.0000 0.1017446503
H   H58       1.0  0.68200  0.86560  0.43380  1.0000 0.1017446503
H   H59       1.0  0.57360  0.74540  0.42890  1.0000 0.141712458
H   H60       1.0  0.55340  0.80230  0.59820  1.0000 0.1207917526
H   H61       1.0  0.34560  0.76390  0.64980  1.0000 0.1207917526
H   H62       1.0  0.65790  0.28510  0.23220  1.0000 0.1207917526
H   H63       1.0  0.80640  0.21370  0.15540  1.0000 0.1207917526
H   H64       1.0  0.16520  0.33550  0.34650  1.0000 0.1127695986
H   H65       1.0  0.02460  0.41130  0.42670  1.0000 0.1207917526
H   H66       1.0  0.84640  0.78790  0.02650  1.0000 0.1207917526
H   H67       1.0  0.56210  0.63710  0.14520  1.0000 0.1207917526
H   H68       1.0  0.47290  0.57620  0.22470  1.0000 0.1282645983
H   H69       1.0  0.35100  0.40340  0.19020  1.0000 0.141712458
H   H70       1.0  0.45020  0.40420  0.30940  1.0000 0.1017446503
H   H71       1.0  0.24820  0.56620  0.43180  1.0000 0.1017446503
H   H72       1.0  0.14470  0.57110  0.31650  1.0000 0.141712458
H   H73       1.0  0.95520  0.40180  0.20410  1.0000 0.1207917526
H   H74       1.0  0.69580  0.35020  0.11410  1.0000 0.1207917526
H   H75       1.0  0.42570  0.76780  0.05290  1.0000 0.1207917526
H   H76       1.0  0.65100  0.84460  0.05830  1.0000 0.1207917526
H   H77       1.0  0.81870  0.65350  0.98900  1.0000 0.1127695986
H   H78       1.0  0.59790  0.57330  0.98460  1.0000 0.1207917526
C   C1        1.0  0.26912  0.02417  0.26829  1.0000 -0.105542799
C   C2        1.0  0.73015  0.06673  0.48322  1.0000 0.1632902297
C   C3        1.0  0.67040  0.13361  0.52839  1.0000 -0.1977868604
C   C4        1.0  0.76191  0.17672  0.60471  1.0000 -0.1977868604
C   C5        1.0  0.87832  0.13649  0.60747  1.0000 0.1673914105
C   C6        1.0  0.99728  0.16433  0.67581  1.0000 -0.0896113461
C   C7        1.0  0.00383  0.23997  0.75212  1.0000 0.1282645983
C   C8        1.0  0.91080  0.23918  0.80142  1.0000 -0.1977868604
C   C9        1.0  0.92389  0.31082  0.87225  1.0000 0.0767023288
C   C10       1.0  0.11221  0.38217  0.84926  1.0000 0.0738772077
C   C11       1.0  0.10599  0.31334  0.77733  1.0000 -0.1977868604
C   C12       1.0  0.11306  0.12792  0.67856  1.0000 0.1673914105
C   C13       1.0  0.23562  0.15823  0.75013  1.0000 -0.1939658574
C   C14       1.0  0.32785  0.10927  0.72928  1.0000 -0.1977868604
C   C15       1.0  0.26297  0.04836  0.64445  1.0000 0.1540966951
C   C16       1.0  0.67071  0.01133  0.40020  1.0000 -0.0896113461
C   C17       1.0  0.53029  0.01697  0.35550  1.0000 0.0885313102
C   C18       1.0  0.53451  0.03964  0.29629  1.0000 -0.1476352639
C   C19       1.0  0.40320  0.04271  0.25389  1.0000 -0.1015029659
C   C20       1.0  0.26425  0.00240  0.32555  1.0000 -0.1015029659
C   C21       1.0  0.39294  0.99906  0.37056  1.0000 -0.1396433688
C   C22       1.0  0.00083  0.73171  0.75588  1.0000 -0.105542799
C   C23       1.0  0.24693  0.51678  0.58351  1.0000 0.1632902297
C   C24       1.0  0.14201  0.47161  0.60522  1.0000 -0.1977868604
C   C25       1.0  0.15720  0.39529  0.57201  1.0000 -0.1977868604
C   C26       1.0  0.27085  0.39253  0.52902  1.0000 0.1673914105
C   C27       1.0  0.32147  0.32419  0.48852  1.0000 -0.0896113461
C   C28       1.0  0.25171  0.24788  0.48785  1.0000 0.1282645983
C   C29       1.0  0.10938  0.19858  0.43776  1.0000 -0.1977868604
C   C30       1.0  0.05164  0.12775  0.43857  1.0000 0.0767023288
C   C31       1.0  0.26295  0.15074  0.53291  1.0000 0.0738772077
C   C32       1.0  0.32866  0.22267  0.53601  1.0000 -0.1977868604
C   C33       1.0  0.43450  0.32144  0.44936  1.0000 0.1673914105
C   C34       1.0  0.48549  0.24987  0.40810  1.0000 -0.1939658574
C   C35       1.0  0.59857  0.27072  0.37999  1.0000 -0.1977868604
C   C36       1.0  0.61852  0.35555  0.40391  1.0000 0.1540966951
C   C37       1.0  0.27051  0.59980  0.61113  1.0000 -0.0896113461
C   C38       1.0  0.17479  0.64450  0.66147  1.0000 0.0885313102
C   C39       1.0  0.23822  0.70371  0.74335  1.0000 -0.1476352639
C   C40       1.0  0.14931  0.74611  0.78882  1.0000 -0.1015029659
C   C41       1.0  0.93870  0.67445  0.67685  1.0000 -0.1015029659
C   C42       1.0  0.02238  0.62944  0.62850  1.0000 -0.1396433688
C   C43       1.0  0.24495  0.24412  0.97583  1.0000 -0.1015029659
C   C44       1.0  0.66342  0.41649  0.93327  1.0000 0.1632902297
C   C45       1.0  0.53679  0.39478  0.86639  1.0000 -0.1977868604
C   C46       1.0  0.58519  0.42799  0.82328  1.0000 -0.1977868604
C   C47       1.0  0.74183  0.47098  0.86351  1.0000 0.1673914105
C   C48       1.0  0.83295  0.51148  0.83567  1.0000 -0.0896113461
C   C49       1.0  0.76386  0.51215  0.76003  1.0000 0.1282645983
C   C50       1.0  0.67162  0.56224  0.76082  1.0000 -0.1977868604
C   C51       1.0  0.61307  0.56143  0.68918  1.0000 0.0767023288
C   C52       1.0  0.73004  0.46709  0.61783  1.0000 0.0738772077
C   C53       1.0  0.79265  0.46399  0.68666  1.0000 -0.1977868604
C   C54       1.0  0.98514  0.55064  0.87208  1.0000 0.1673914105
C   C55       1.0  0.07739  0.59190  0.84177  1.0000 -0.1939658574
C   C56       1.0  0.21858  0.62001  0.89073  1.0000 -0.1977868604
C   C57       1.0  0.21461  0.59609  0.95164  1.0000 0.1540966951
C   C58       1.0  0.65938  0.38887  0.98867  1.0000 -0.0896113461
C   C59       1.0  0.51332  0.33853  0.98303  1.0000 0.0885313102
C   C60       1.0  0.49487  0.25665  0.96036  1.0000 -0.1476352639
C   C61       1.0  0.36049  0.21118  0.95729  1.0000 -0.1015029659
C   C62       1.0  0.26185  0.32315  0.99760  1.0000 -0.1015029659
C   C63       1.0  0.39388  0.37150  0.00094  1.0000 -0.1396433688
C   C64       1.0  0.73088  0.97583  0.73171  1.0000 -0.105542799
C   C65       1.0  0.26985  0.93327  0.51678  1.0000 0.1632902297
C   C66       1.0  0.32960  0.86639  0.47161  1.0000 -0.1977868604
C   C67       1.0  0.23809  0.82328  0.39529  1.0000 -0.1977868604
C   C68       1.0  0.12168  0.86351  0.39253  1.0000 0.1673914105
C   C69       1.0  0.00272  0.83567  0.32419  1.0000 -0.0896113461
C   C70       1.0  0.99617  0.76003  0.24788  1.0000 0.1282645983
C   C71       1.0  0.08920  0.76082  0.19858  1.0000 -0.1977868604
C   C72       1.0  0.07611  0.68918  0.12775  1.0000 0.0767023288
C   C73       1.0  0.88779  0.61783  0.15074  1.0000 0.0738772077
C   C74       1.0  0.89401  0.68666  0.22267  1.0000 -0.1977868604
C   C75       1.0  0.88694  0.87208  0.32144  1.0000 0.1673914105
C   C76       1.0  0.76438  0.84177  0.24987  1.0000 -0.1939658574
C   C77       1.0  0.67215  0.89073  0.27072  1.0000 -0.1977868604
C   C78       1.0  0.73703  0.95164  0.35555  1.0000 0.1540966951
C   C79       1.0  0.32929  0.98867  0.59980  1.0000 -0.0896113461
C   C80       1.0  0.46971  0.98303  0.64450  1.0000 0.0885313102
C   C81       1.0  0.46549  0.96036  0.70371  1.0000 -0.1476352639
C   C82       1.0  0.59680  0.95729  0.74611  1.0000 -0.1015029659
C   C83       1.0  0.73575  0.99760  0.67445  1.0000 -0.1015029659
C   C84       1.0  0.60706  0.00094  0.62944  1.0000 -0.1396433688
C   C85       1.0  0.99917  0.26829  0.24412  1.0000 -0.105542799
C   C86       1.0  0.75307  0.48322  0.41649  1.0000 0.1632902297
C   C87       1.0  0.85799  0.52839  0.39478  1.0000 -0.1977868604
C   C88       1.0  0.84280  0.60471  0.42799  1.0000 -0.1977868604
C   C89       1.0  0.72915  0.60747  0.47098  1.0000 0.1673914105
C   C90       1.0  0.67853  0.67581  0.51148  1.0000 -0.0896113461
C   C91       1.0  0.74829  0.75212  0.51215  1.0000 0.1282645983
C   C92       1.0  0.89062  0.80142  0.56224  1.0000 -0.1977868604
C   C93       1.0  0.94836  0.87225  0.56143  1.0000 0.0767023288
C   C94       1.0  0.73705  0.84926  0.46709  1.0000 0.0738772077
C   C95       1.0  0.67134  0.77733  0.46399  1.0000 -0.1977868604
C   C96       1.0  0.56550  0.67856  0.55064  1.0000 0.1673914105
C   C97       1.0  0.51451  0.75013  0.59190  1.0000 -0.1939658574
C   C98       1.0  0.40143  0.72928  0.62001  1.0000 -0.1977868604
C   C99       1.0  0.38148  0.64445  0.59609  1.0000 0.1540966951
C   C100      1.0  0.72949  0.40020  0.38887  1.0000 -0.0896113461
C   C101      1.0  0.82521  0.35550  0.33853  1.0000 0.0885313102
C   C102      1.0  0.76178  0.29629  0.25665  1.0000 -0.1476352639
C   C103      1.0  0.85069  0.25389  0.21118  1.0000 -0.1015029659
C   C104      1.0  0.06130  0.32555  0.32315  1.0000 -0.1015029659
C   C105      1.0  0.97762  0.37056  0.37150  1.0000 -0.1396433688
C   C106      1.0  0.75505  0.75588  0.02417  1.0000 -0.105542799
C   C107      1.0  0.33658  0.58351  0.06673  1.0000 0.1632902297
C   C108      1.0  0.46321  0.60522  0.13361  1.0000 -0.1977868604
C   C109      1.0  0.41481  0.57201  0.17672  1.0000 -0.1977868604
C   C110      1.0  0.25817  0.52902  0.13649  1.0000 0.1673914105
C   C111      1.0  0.16705  0.48852  0.16433  1.0000 -0.0896113461
C   C112      1.0  0.23614  0.48785  0.23997  1.0000 0.1282645983
C   C113      1.0  0.32838  0.43776  0.23918  1.0000 -0.1977868604
C   C114      1.0  0.38693  0.43857  0.31082  1.0000 0.0767023288
C   C115      1.0  0.26996  0.53291  0.38217  1.0000 0.0738772077
C   C116      1.0  0.20735  0.53601  0.31334  1.0000 -0.1977868604
C   C117      1.0  0.01486  0.44936  0.12792  1.0000 0.1673914105
C   C118      1.0  0.92261  0.40810  0.15823  1.0000 -0.1939658574
C   C119      1.0  0.78142  0.37999  0.10927  1.0000 -0.1977868604
C   C120      1.0  0.78539  0.40391  0.04836  1.0000 0.1540966951
C   C121      1.0  0.34062  0.61113  0.01133  1.0000 -0.0896113461
C   C122      1.0  0.48668  0.66147  0.01697  1.0000 0.0885313102
C   C123      1.0  0.50513  0.74335  0.03964  1.0000 -0.1476352639
C   C124      1.0  0.63951  0.78882  0.04271  1.0000 -0.1015029659
C   C125      1.0  0.73815  0.67685  0.00240  1.0000 -0.1015029659
C   C126      1.0  0.60612  0.62850  0.99906  1.0000 -0.1396433688
N   N1        1.0  0.85686  0.06874  0.53254  1.0000 -0.3329633683
N   N2        1.0  0.12986  0.05999  0.61419  1.0000 -0.3329633683
N   N3        1.0  0.02224  0.38181  0.89681  1.0000 -0.2133390483
N   N4        1.0  0.32432  0.46746  0.53620  1.0000 -0.3329633683
N   N5        1.0  0.51567  0.38581  0.44580  1.0000 -0.3329633683
N   N6        1.0  0.12543  0.10319  0.48500  1.0000 -0.2133390483
N   N7        1.0  0.78812  0.46380  0.93126  1.0000 -0.3351863004
N   N8        1.0  0.06987  0.55420  0.94001  1.0000 -0.3351863004
N   N9        1.0  0.64043  0.51500  0.61819  1.0000 -0.2133390483
N   N10       1.0  0.14314  0.93126  0.46746  1.0000 -0.3329633683
N   N11       1.0  0.87014  0.94001  0.38581  1.0000 -0.3329633683
N   N12       1.0  0.97776  0.61819  0.10319  1.0000 -0.2133390483
N   N13       1.0  0.67568  0.53254  0.46380  1.0000 -0.3329633683
N   N14       1.0  0.48433  0.61419  0.55420  1.0000 -0.3329633683
N   N15       1.0  0.87457  0.89681  0.51500  1.0000 -0.2133390483
N   N16       1.0  0.21188  0.53620  0.06874  1.0000 -0.3351863004
N   N17       1.0  0.93013  0.44580  0.05999  1.0000 -0.3329633683
N   N18       1.0  0.35957  0.48500  0.38181  1.0000 -0.2133390483
