# DDEC6 charges by PACMAN v1.1 (https://github.com/mtap-research/PACMAN-charge/)
data_UWODAN_FSR_pacman
_symmetry_space_group_name_H-M   'P 1'
_cell_length_a   16.61970000
_cell_length_b   16.61970000
_cell_length_c   12.76290000
_cell_angle_alpha   90.00000000
_cell_angle_beta   90.00000000
_cell_angle_gamma   114.86900000
_symmetry_Int_Tables_number   1
_chemical_formula_structural   Mg2Ni3PH9C14NO20
_chemical_formula_sum   'Mg8 Ni12 P4 H36 C56 N4 O80'
_cell_volume   3198.40225788
_cell_formula_units_Z   4
loop_
 _symmetry_equiv_pos_site_id
 _symmetry_equiv_pos_as_xyz
  1  'x, y, z'
loop_
 _atom_site_type_symbol
 _atom_site_label
 _atom_site_symmetry_multiplicity
 _atom_site_fract_x
 _atom_site_fract_y
 _atom_site_fract_z
 _atom_site_occupancy
 _atom_site_charge
Mg  Mg1  1  0.18202000  0.93626000  0.58191000  1.0 1.4364983222
Mg  Mg2  1  0.31798000  0.56374000  0.08191000  1.0 1.4364983222
Mg  Mg3  1  0.43626000  0.68202000  0.91809000  1.0 1.4364983222
Mg  Mg4  1  0.06374000  0.81798000  0.41809000  1.0 1.4364983222
Mg  Mg5  1  0.81798000  0.06374000  0.41809000  1.0 1.4364983222
Mg  Mg6  1  0.68202000  0.43626000  0.91809000  1.0 1.4364983222
Mg  Mg7  1  0.56374000  0.31798000  0.08191000  1.0 1.4364983222
Mg  Mg8  1  0.93626000  0.18202000  0.58191000  1.0 1.4364983222
Ni  Ni1  1  0.11175000  0.00375000  0.33951000  1.0 1.11914713
Ni  Ni2  1  0.38825000  0.49625000  0.83951000  1.0 1.11914713
Ni  Ni3  1  0.50375000  0.61175000  0.16049000  1.0 1.11914713
Ni  Ni4  1  0.99625000  0.88825000  0.66049000  1.0 1.11914713
Ni  Ni5  1  0.88825000  0.99625000  0.66049000  1.0 1.11914713
Ni  Ni6  1  0.61175000  0.50375000  0.16049000  1.0 1.11914713
Ni  Ni7  1  0.49625000  0.38825000  0.83951000  1.0 1.11914713
Ni  Ni8  1  0.00375000  0.11175000  0.33951000  1.0 1.11914713
Ni  Ni9  1  0.16508000  0.16508000  0.18850000  1.0 0.9264250181
Ni  Ni10  1  0.33492000  0.33492000  0.68850000  1.0 0.9264250181
Ni  Ni11  1  0.66508000  0.66508000  0.31150000  1.0 0.9264250181
Ni  Ni12  1  0.83492000  0.83492000  0.81150000  1.0 0.9264250181
P  P1  1  0.41305000  0.41305000  0.06898000  1.0 1.3419248841
P  P2  1  0.08695000  0.08695000  0.56898000  1.0 1.3419248841
P  P3  1  0.91305000  0.91305000  0.43102000  1.0 1.3419248841
P  P4  1  0.58695000  0.58695000  0.93102000  1.0 1.3419248841
H  H1  1  0.38390000  0.24570000  0.21130000  1.0 0.1603836096
H  H2  1  0.11610000  0.25430000  0.71130000  1.0 0.1603836096
H  H3  1  0.74570000  0.88390000  0.28870000  1.0 0.1603836096
H  H4  1  0.75430000  0.61610000  0.78870000  1.0 0.1603836096
H  H5  1  0.61610000  0.75430000  0.78870000  1.0 0.1603836096
H  H6  1  0.88390000  0.74570000  0.28870000  1.0 0.1603836096
H  H7  1  0.25430000  0.11610000  0.71130000  1.0 0.1603836096
H  H8  1  0.24570000  0.38390000  0.21130000  1.0 0.1603836096
H  H9  1  0.38470000  0.30930000  0.30230000  1.0 0.1603836096
H  H10  1  0.11530000  0.19070000  0.80230000  1.0 0.1603836096
H  H11  1  0.80930000  0.88470000  0.19770000  1.0 0.1603836096
H  H12  1  0.69070000  0.61530000  0.69770000  1.0 0.1603836096
H  H13  1  0.61530000  0.69070000  0.69770000  1.0 0.1603836096
H  H14  1  0.88470000  0.80930000  0.19770000  1.0 0.1603836096
H  H15  1  0.19070000  0.11530000  0.80230000  1.0 0.1603836096
H  H16  1  0.30930000  0.38470000  0.30230000  1.0 0.1603836096
H  H17  1  0.32050000  0.26490000  0.05690000  1.0 0.1730868749
H  H18  1  0.17950000  0.23510000  0.55690000  1.0 0.1730868749
H  H19  1  0.76490000  0.82050000  0.44310000  1.0 0.1730868749
H  H20  1  0.73510000  0.67950000  0.94310000  1.0 0.1730868749
H  H21  1  0.67950000  0.73510000  0.94310000  1.0 0.1730868749
H  H22  1  0.82050000  0.76490000  0.44310000  1.0 0.1730868749
H  H23  1  0.23510000  0.17950000  0.55690000  1.0 0.1730868749
H  H24  1  0.26490000  0.32050000  0.05690000  1.0 0.1730868749
H  H25  1  0.24360000  0.80140000  0.84530000  1.0 0.149843537
H  H26  1  0.25640000  0.69860000  0.34530000  1.0 0.149843537
H  H27  1  0.30140000  0.74360000  0.65470000  1.0 0.149843537
H  H28  1  0.19860000  0.75640000  0.15470000  1.0 0.149843537
H  H29  1  0.75640000  0.19860000  0.15470000  1.0 0.149843537
H  H30  1  0.74360000  0.30140000  0.65470000  1.0 0.149843537
H  H31  1  0.69860000  0.25640000  0.34530000  1.0 0.149843537
H  H32  1  0.80140000  0.24360000  0.84530000  1.0 0.149843537
H  H33  1  0.09800000  0.90200000  0.00000000  1.0 0.1603836096
H  H34  1  0.40200000  0.59800000  0.50000000  1.0 0.1603836096
H  H35  1  0.90200000  0.09800000  0.00000000  1.0 0.1603836096
H  H36  1  0.59800000  0.40200000  0.50000000  1.0 0.1603836096
C  C1  1  0.34660000  0.25880000  0.26050000  1.0 -0.2543472864
C  C2  1  0.15340000  0.24120000  0.76050000  1.0 -0.2543472864
C  C3  1  0.75880000  0.84660000  0.23950000  1.0 -0.2543472864
C  C4  1  0.74120000  0.65340000  0.73950000  1.0 -0.2543472864
C  C5  1  0.65340000  0.74120000  0.73950000  1.0 -0.2543472864
C  C6  1  0.84660000  0.75880000  0.23950000  1.0 -0.2543472864
C  C7  1  0.24120000  0.15340000  0.76050000  1.0 -0.2543472864
C  C8  1  0.25880000  0.34660000  0.26050000  1.0 -0.2543472864
C  C9  1  0.30100000  0.17920000  0.33230000  1.0 0.6335463307
C  C10  1  0.19900000  0.32080000  0.83230000  1.0 0.6335463307
C  C11  1  0.67920000  0.80100000  0.16770000  1.0 0.6335463307
C  C12  1  0.82080000  0.69900000  0.66770000  1.0 0.6335463307
C  C13  1  0.69900000  0.82080000  0.66770000  1.0 0.6335463307
C  C14  1  0.80100000  0.67920000  0.16770000  1.0 0.6335463307
C  C15  1  0.32080000  0.19900000  0.83230000  1.0 0.6335463307
C  C16  1  0.17920000  0.30100000  0.33230000  1.0 0.6335463307
C  C17  1  0.31310000  0.31310000  0.09210000  1.0 -0.4387151816
C  C18  1  0.18690000  0.18690000  0.59210000  1.0 -0.4387151816
C  C19  1  0.81310000  0.81310000  0.40790000  1.0 -0.4387151816
C  C20  1  0.68690000  0.68690000  0.90790000  1.0 -0.4387151816
C  C21  1  0.28330000  0.71670000  0.00000000  1.0 0.6146664701
C  C22  1  0.21670000  0.78330000  0.50000000  1.0 0.6146664701
C  C23  1  0.71670000  0.28330000  0.00000000  1.0 0.6146664701
C  C24  1  0.78330000  0.21670000  0.50000000  1.0 0.6146664701
C  C25  1  0.23000000  0.77000000  0.00000000  1.0 0.0115728856
C  C26  1  0.27000000  0.73000000  0.50000000  1.0 0.0115728856
C  C27  1  0.77000000  0.23000000  0.00000000  1.0 0.0115728856
C  C28  1  0.73000000  0.27000000  0.50000000  1.0 0.0115728856
C  C29  1  0.21700000  0.80760000  0.90710000  1.0 -0.0981612273
C  C30  1  0.28300000  0.69240000  0.40710000  1.0 -0.0981612273
C  C31  1  0.30760000  0.71700000  0.59290000  1.0 -0.0981612273
C  C32  1  0.19240000  0.78300000  0.09290000  1.0 -0.0981612273
C  C33  1  0.78300000  0.19240000  0.09290000  1.0 -0.0981612273
C  C34  1  0.71700000  0.30760000  0.59290000  1.0 -0.0981612273
C  C35  1  0.69240000  0.28300000  0.40710000  1.0 -0.0981612273
C  C36  1  0.80760000  0.21700000  0.90710000  1.0 -0.0981612273
C  C37  1  0.14060000  0.88440000  0.80490000  1.0 0.6037793539
C  C38  1  0.35940000  0.61560000  0.30490000  1.0 0.6037793539
C  C39  1  0.38440000  0.64060000  0.69510000  1.0 0.6037793539
C  C40  1  0.11560000  0.85940000  0.19510000  1.0 0.6037793539
C  C41  1  0.85940000  0.11560000  0.19510000  1.0 0.6037793539
C  C42  1  0.64060000  0.38440000  0.69510000  1.0 0.6037793539
C  C43  1  0.61560000  0.35940000  0.30490000  1.0 0.6037793539
C  C44  1  0.88440000  0.14060000  0.80490000  1.0 0.6037793539
C  C45  1  0.16490000  0.85410000  0.90720000  1.0 0.0219268307
C  C46  1  0.33510000  0.64590000  0.40720000  1.0 0.0219268307
C  C47  1  0.35410000  0.66490000  0.59280000  1.0 0.0219268307
C  C48  1  0.14590000  0.83510000  0.09280000  1.0 0.0219268307
C  C49  1  0.83510000  0.14590000  0.09280000  1.0 0.0219268307
C  C50  1  0.66490000  0.35410000  0.59280000  1.0 0.0219268307
C  C51  1  0.64590000  0.33510000  0.40720000  1.0 0.0219268307
C  C52  1  0.85410000  0.16490000  0.90720000  1.0 0.0219268307
C  C53  1  0.13120000  0.86880000  0.00000000  1.0 -0.0901294909
C  C54  1  0.36880000  0.63120000  0.50000000  1.0 -0.0901294909
C  C55  1  0.86880000  0.13120000  0.00000000  1.0 -0.0901294909
C  C56  1  0.63120000  0.36880000  0.50000000  1.0 -0.0901294909
N  N1  1  0.28280000  0.28280000  0.20130000  1.0 -0.0138276413
N  N2  1  0.21720000  0.21720000  0.70130000  1.0 -0.0138276413
N  N3  1  0.78280000  0.78280000  0.29870000  1.0 -0.0138276413
N  N4  1  0.71720000  0.71720000  0.79870000  1.0 -0.0138276413
O  O1  1  0.09160000  0.19740000  0.07590000  1.0 -0.0901294909
O  O2  1  0.40840000  0.30260000  0.57590000  1.0 -0.0901294909
O  O3  1  0.69740000  0.59160000  0.42410000  1.0 -0.0901294909
O  O4  1  0.80260000  0.90840000  0.92410000  1.0 -0.0901294909
O  O5  1  0.90840000  0.80260000  0.92410000  1.0 -0.0901294909
O  O6  1  0.59160000  0.69740000  0.42410000  1.0 -0.0901294909
O  O7  1  0.30260000  0.40840000  0.57590000  1.0 -0.0901294909
O  O8  1  0.19740000  0.09160000  0.07590000  1.0 -0.0901294909
O  O9  1  0.05830000  0.05830000  0.23620000  1.0 -0.7199603387
O  O10  1  0.44170000  0.44170000  0.73620000  1.0 -0.7199603387
O  O11  1  0.55830000  0.55830000  0.26380000  1.0 -0.7199603387
O  O12  1  0.94170000  0.94170000  0.76380000  1.0 -0.7199603387
O  O13  1  0.22619000  0.12101000  0.30040000  1.0 -0.5685487756
O  O14  1  0.27381000  0.37899000  0.80040000  1.0 -0.5685487756
O  O15  1  0.62101000  0.72619000  0.19960000  1.0 -0.5685487756
O  O16  1  0.87899000  0.77381000  0.69960000  1.0 -0.5685487756
O  O17  1  0.77381000  0.87899000  0.69960000  1.0 -0.5685487756
O  O18  1  0.72619000  0.62101000  0.19960000  1.0 -0.5685487756
O  O19  1  0.37899000  0.27381000  0.80040000  1.0 -0.5685487756
O  O20  1  0.12101000  0.22619000  0.30040000  1.0 -0.5685487756
O  O21  1  0.30260000  0.04840000  0.57080000  1.0 -0.3631211215
O  O22  1  0.19740000  0.45160000  0.07080000  1.0 -0.3631211215
O  O23  1  0.54840000  0.80260000  0.92920000  1.0 -0.3631211215
O  O24  1  0.95160000  0.69740000  0.42920000  1.0 -0.3631211215
O  O25  1  0.69740000  0.95160000  0.42920000  1.0 -0.3631211215
O  O26  1  0.80260000  0.54840000  0.92920000  1.0 -0.3631211215
O  O27  1  0.45160000  0.19740000  0.07080000  1.0 -0.3631211215
O  O28  1  0.04840000  0.30260000  0.57080000  1.0 -0.3631211215
O  O29  1  0.33960000  0.17340000  0.41330000  1.0 -0.3784313978
O  O30  1  0.16040000  0.32660000  0.91330000  1.0 -0.3784313978
O  O31  1  0.67340000  0.83960000  0.08670000  1.0 -0.3784313978
O  O32  1  0.82660000  0.66040000  0.58670000  1.0 -0.3784313978
O  O33  1  0.66040000  0.82660000  0.58670000  1.0 -0.3784313978
O  O34  1  0.83960000  0.67340000  0.08670000  1.0 -0.3784313978
O  O35  1  0.32660000  0.16040000  0.91330000  1.0 -0.3784313978
O  O36  1  0.17340000  0.33960000  0.41330000  1.0 -0.3784313978
O  O37  1  0.41840000  0.41840000  0.94960000  1.0 -0.7340420999
O  O38  1  0.08160000  0.08160000  0.44960000  1.0 -0.7340420999
O  O39  1  0.91840000  0.91840000  0.55040000  1.0 -0.7340420999
O  O40  1  0.58160000  0.58160000  0.05040000  1.0 -0.7340420999
O  O41  1  0.16819000  0.94241000  0.42510000  1.0 -0.9666342207
O  O42  1  0.33181000  0.55759000  0.92510000  1.0 -0.9666342207
O  O43  1  0.44241000  0.66819000  0.07490000  1.0 -0.9666342207
O  O44  1  0.05759000  0.83181000  0.57490000  1.0 -0.9666342207
O  O45  1  0.83181000  0.05759000  0.57490000  1.0 -0.9666342207
O  O46  1  0.66819000  0.44241000  0.07490000  1.0 -0.9666342207
O  O47  1  0.55759000  0.33181000  0.92510000  1.0 -0.9666342207
O  O48  1  0.94241000  0.16819000  0.42510000  1.0 -0.9666342207
O  O49  1  0.39915000  0.49065000  0.11660000  1.0 -0.7340420999
O  O50  1  0.10085000  0.00935000  0.61660000  1.0 -0.7340420999
O  O51  1  0.99065000  0.89915000  0.38340000  1.0 -0.7340420999
O  O52  1  0.50935000  0.60085000  0.88340000  1.0 -0.7340420999
O  O53  1  0.60085000  0.50935000  0.88340000  1.0 -0.7340420999
O  O54  1  0.89915000  0.99065000  0.38340000  1.0 -0.7340420999
O  O55  1  0.00935000  0.10085000  0.61660000  1.0 -0.7340420999
O  O56  1  0.49065000  0.39915000  0.11660000  1.0 -0.7340420999
O  O57  1  0.35086000  0.74354000  0.94180000  1.0 -0.518628917
O  O58  1  0.14914000  0.75646000  0.44180000  1.0 -0.518628917
O  O59  1  0.24354000  0.85086000  0.55820000  1.0 -0.518628917
O  O60  1  0.25646000  0.64914000  0.05820000  1.0 -0.518628917
O  O61  1  0.64914000  0.25646000  0.05820000  1.0 -0.518628917
O  O62  1  0.85086000  0.24354000  0.55820000  1.0 -0.518628917
O  O63  1  0.75646000  0.14914000  0.44180000  1.0 -0.518628917
O  O64  1  0.74354000  0.35086000  0.94180000  1.0 -0.518628917
O  O65  1  0.06092000  0.87028000  0.79320000  1.0 -0.4609401778
O  O66  1  0.43908000  0.62972000  0.29320000  1.0 -0.4609401778
O  O67  1  0.37028000  0.56092000  0.70680000  1.0 -0.4609401778
O  O68  1  0.12972000  0.93908000  0.20680000  1.0 -0.4609401778
O  O69  1  0.93908000  0.12972000  0.20680000  1.0 -0.4609401778
O  O70  1  0.56092000  0.37028000  0.70680000  1.0 -0.4609401778
O  O71  1  0.62972000  0.43908000  0.29320000  1.0 -0.4609401778
O  O72  1  0.87028000  0.06092000  0.79320000  1.0 -0.4609401778
O  O73  1  0.20182000  0.92218000  0.73880000  1.0 -0.5550005653
O  O74  1  0.29818000  0.57782000  0.23880000  1.0 -0.5545193174
O  O75  1  0.42218000  0.70182000  0.76120000  1.0 -0.5550005653
O  O76  1  0.07782000  0.79818000  0.26120000  1.0 -0.5550005653
O  O77  1  0.79818000  0.07782000  0.26120000  1.0 -0.5545193174
O  O78  1  0.70182000  0.42218000  0.76120000  1.0 -0.5545193174
O  O79  1  0.57782000  0.29818000  0.23880000  1.0 -0.5550005653
O  O80  1  0.92218000  0.20182000  0.73880000  1.0 -0.5545193174
